Circuit: * C:\Users\ahmed\OneDrive - MOE\Ahmed\Spring 2022\ECE 332\Term Project\Simulation\Error Amplifier Stage.asc

Direct Newton iteration for .op point succeeded.

Date: Tue Apr 26 22:58:05 2022
Total elapsed time: 0.047 seconds.

tnom = 27
temp = 27
method = modified trap
totiter = 2379
traniter = 2376
tranpoints = 1189
accept = 1109
rejected = 80
matrix size = 12
fillins = 1
solver = Normal
Matrix Compiler1: 410 bytes object code size  0.1/0.1/[0.0]
Matrix Compiler2: off  [0.1]/0.1/0.1

