Circuit: * C:\Users\ahmed\OneDrive - MOE\Ahmed\Spring 2022\ECE 332\Term Project\Simulation\PID Stage.asc

Direct Newton iteration for .op point succeeded.

Date: Tue Apr 26 23:04:47 2022
Total elapsed time: 0.041 seconds.

tnom = 27
temp = 27
method = trap
totiter = 3
traniter = 0
tranpoints = 0
accept = 0
rejected = 0
matrix size = 10
fillins = 0
solver = Normal
Matrix Compiler1:      23 opcodes
Matrix Compiler2: 726 bytes object code size
